<?xml version="1.0" encoding="UTF-8"?>
<routes xmlns:xsi="http://www.w3.org/2001/XMLSchema-instance"
        xsi:noNamespaceSchemaLocation="http://sumo.dlr.de/xsd/routes_file.xsd">

    <vType id="car" accel="1.0" decel="4.5"
           length="5.0" minGap="2.5" maxSpeed="13.9"/>

    <!-- One car: from south -> through C -> to north -->
    <route id="r0" edges="S2C C2N"/>

    <vehicle id="veh0" type="car" route="r0" depart="0"/>

</routes>
